v {xschem version=3.4.8RC file_version=1.3}
G {}
K {}
V {}
S {}
F {}
E {}
B 2 -650 -850 150 -450 {flags=graph
y1=0.059
y2=1.8
ypos1=0.16402513
ypos2=0.58171651
divy=5
subdivy=1
unity=1
x1=-2.4e-08
x2=4.56e-07
divx=5
subdivx=1
xlabmag=1.0
ylabmag=1.0
dataset=-1
unitx=1
logx=0
logy=0
rawfile=$netlist_dir/comp_1bit_test.raw
hilight_wave=1
color="11 16"
node="q
clk"
digital=1}
B 2 -650 -1280 150 -880 {flags=graph
y1=1.5014
y2=3.4944
ypos1=0
ypos2=2
divy=5
subdivy=1
unity=1
x1=-2.4e-08
x2=4.56e-07
divx=5
subdivx=1
xlabmag=1.0
ylabmag=1.0
dataset=-1
unitx=1
logx=0
logy=0
rawfile=$netlist_dir/comp_1bit_test.raw
color="4 5"
node="x1.out-
x1.out+"}
B 2 -650 -1700 150 -1300 {flags=graph
y1=0.0070910693
y2=1.1372681
ypos1=0
ypos2=2
divy=5
subdivy=1
unity=1
x1=-2.4e-08
x2=4.56e-07
divx=5
subdivx=1
xlabmag=1.0
ylabmag=1.0
node="in2
in1"
color="12 5"
dataset=-1
unitx=1
logx=0
logy=0
rawfile=$netlist_dir/comp_1bit_test.raw
hilight_wave=1}
C {code_shown.sym} -1000 -340 0 0 {name=bro only_toplevel=false spice_ignore=true value=
"
.param VSS=0 VCC=1.8 Vcm=0.39 Vdif=0.093 time_period=30ns prds=16 rise=10ps fall=10ps

VCC VCC 0 DC 1.8
VSS VSS 0 DC 0

V_CLK CLK 0 PULSE(\{VCC\} \{VSS\} 0ns \{rise\} \{fall\} \{time_period/2\} \{time_period\} \{prds\})
V_CLK_bar CLK_bar 0 PULSE(\{VSS\} \{VCC\} 0ns \{rise\} \{fall\} \{time_period/2\} \{time_period\} \{prds\})

V_IN1 IN1 0 PULSE(\{Vdif\} \{Vcm\} 0 100ps 100ps \{time_period\} \{time_period*2\} \{prds/2\})
V_IN2 IN2 0 PULSE(\{Vcm\} \{Vdif\} 0 100ps 100ps \{time_period\} \{time_period*2\} \{prds/2\})

V_EN EN 0 PULSE(\{VCC\} \{VSS\} 0ns \{rise\} \{fall\} \{time_period*prds/6\} \{time_period*prds/2\} prds)
V_EN_bar EN_bar 0 PULSE(\{VSS\} \{VCC\} 0ns \{rise\} \{fall\} \{time_period*prds/8\} \{time_period*prds/4\} prds)

.tran 0.01ns \{time_period*prds\}
.save all

.control
run
plot v(IN1) v(IN2) v(x1.OUT+)+2.2 v(x1.OUT-)+2.2 Q-2.2 Q_bar-2.2 CLK+4.2 en+6.2
  foreach vdif 0.093 0.092 0.089 0.087 0.086 0.085 0.083 0.081
    alterparam Vdif = $vdif
    reset
    run
    plot v(IN1) v(IN2) v(x1.OUT+)+2.2 v(x1.OUT-)+2.2 Q-2.2 Q_bar-2.2 CLK+4.2 en+6.2
  end
.endc
"}
C {code.sym} -1270 -1040 0 0 {
name=TT_MODELS
only_toplevel=true
format="tcleval( @value )"
value="
** opencircuitdesign pdks install
.lib $::SKYWATER_MODELS/sky130.lib.spice tt
"
spice_ignore=false
      }
C {code.sym} -1300 -880 0 0 {name="all threshold test" only_toplevel=false spice_ignore=true value=
"
.param VSS=0 VCC=1.8 Vcm=1.45 Vdif=0.3 time_period=30ns prds=130 rise=100ps fall=100ps

VCC VCC 0 DC 1.8
VSS VSS 0 DC 0

V_CLK CLK 0 PULSE(\{VCC\} \{VSS\} 0ns \{rise\} \{fall\} \{(time_period)/2\} \{time_period\} \{prds\})
V_CLK_bar CLK_bar 0 PULSE(\{VSS\} \{VCC\} 0ns \{rise\} \{fall\} \{(time_period)/2\} \{time_period\} \{prds\})

V_EN EN 0 PULSE(\{VCC\} \{VSS\} 0ns \{rise\} \{fall\} \{time_period*prds/8\} \{time_period*prds/4\} prds)
V_EN_bar EN_bar 0 PULSE(\{VSS\} \{VCC\} 0ns \{rise\} \{fall\} \{time_period*prds/8\} \{time_period*prds/4\} prds)

V_IN1 IN1 0 PWL(0ns 1.906 29.9ns 1.906 30ns 1.8981 59.9ns 1.8981 60ns 1.898 89.9ns 1.898 90ns 1.8839 119.9ns 1.8839 120ns 1.8838 149.9ns 1.8838 150ns 1.8435 179.9ns 1.8435 180ns 1.8426 209.9ns 1.8426 210ns 1.7519 239.9ns 1.7519 240ns 1.7476 269.9ns 1.7476 270ns 1.5662 299.9ns 1.5662 300ns 1.5382 329.9ns 1.5382 330ns 1.2361 359.9ns 1.2361 360ns 1.1518 389.9ns 1.1518 390ns 0.7665 419.9ns 0.7665 420ns 0.6388 449.9ns 0.6388 450ns 0.1203 479.9ns 0.1203 480ns 1.906 509.9ns 1.906 510ns 1.8981 539.9ns 1.8981 540ns 1.898 569.9ns 1.898 570ns 1.8839 599.9ns 1.8839 600ns 1.8838 629.9ns 1.8838 630ns 1.8435 659.9ns 1.8435 660ns 1.8426 689.9ns 1.8426 690ns 1.7519 719.9ns 1.7519 720ns 1.7476 749.9ns 1.7476 750ns 1.5662 779.9ns 1.5662 780ns 1.5382 809.9ns 1.5382 810ns 1.2361 839.9ns 1.2361 840ns 1.1518 869.9ns 1.1518 870ns 0.7665 899.9ns 0.7665 900ns 0.6388 929.9ns 0.6388 930ns 0.1203 959.9ns 0.1203 960ns 1.906 989.9ns 1.906 990ns 1.8981 1019.9ns 1.8981 1020ns 1.898 1049.9ns 1.898 1050ns 1.8839 1079.9ns 1.8839 1080ns 1.8838 1109.9ns 1.8838 1110ns 1.8435 1139.9ns 1.8435 1140ns 1.8426 1169.9ns 1.8426 1170ns 1.7519 1199.9ns 1.7519 1200ns 1.7476 1229.9ns 1.7476 1230ns 1.5662 1259.9ns 1.5662 1260ns 1.5382 1289.9ns 1.5382 1290ns 1.2361 1319.9ns 1.2361 1320ns 1.1518 1349.9ns 1.1518 1350ns 0.7665 1379.9ns 0.7665 1380ns 0.6388 1409.9ns 0.6388 1410ns 0.1203 1439.9ns 0.1203 1440ns 1.906 1469.9ns 1.906 1470ns 1.8981 1499.9ns 1.8981 1500ns 1.898 1529.9ns 1.898 1530ns 1.8839 1559.9ns 1.8839 1560ns 1.8838 1589.9ns 1.8838 1590ns 1.8435 1619.9ns 1.8435 1620ns 1.8426 1649.9ns 1.8426 1650ns 1.7519 1679.9ns 1.7519 1680ns 1.7476 1709.9ns 1.7476 1710ns 1.5662 1739.9ns 1.5662 1740ns 1.5382 1769.9ns 1.5382 1770ns 1.2361 1799.9ns 1.2361 1800ns 1.1518 1829.9ns 1.1518 1830ns 0.7665 1859.9ns 0.7665 1860ns 0.6388 1889.9ns 0.6388 1890ns 0.1203 1919.9ns 0.1203 1920ns 1.906 1949.9ns 1.906 1950ns 1.8981 1979.9ns 1.8981 1980ns 1.898 2009.9ns 1.898 2010ns 1.8839 2039.9ns 1.8839 2040ns 1.8838 2069.9ns 1.8838 2070ns 1.8435 2099.9ns 1.8435 2100ns 1.8426 2129.9ns 1.8426 2130ns 1.7519 2159.9ns 1.7519 2160ns 1.7476 2189.9ns 1.7476 2190ns 1.5662 2219.9ns 1.5662 2220ns 1.5382 2249.9ns 1.5382 2250ns 1.2361 2279.9ns 1.2361 2280ns 1.1518 2309.9ns 1.1518 2310ns 0.7665 2339.9ns 0.7665 2340ns 0.6388 2369.9ns 0.6388 2370ns 0.1203 2399.9ns 0.1203 2400ns 1.906 2429.9ns 1.906 2430ns 1.8981 2459.9ns 1.8981 2460ns 1.898 2489.9ns 1.898 2490ns 1.8839 2519.9ns 1.8839 2520ns 1.8838 2549.9ns 1.8838 2550ns 1.8435 2579.9ns 1.8435 2580ns 1.8426 2609.9ns 1.8426 2610ns 1.7519 2639.9ns 1.7519 2640ns 1.7476 2669.9ns 1.7476 2670ns 1.5662 2699.9ns 1.5662 2700ns 1.5382 2729.9ns 1.5382 2730ns 1.2361 2759.9ns 1.2361 2760ns 1.1518 2789.9ns 1.1518 2790ns 0.7665 2819.9ns 0.7665 2820ns 0.6388 2849.9ns 0.6388 2850ns 0.1203 2879.9ns 0.1203 2880ns 1.906 2909.9ns 1.906 2910ns 1.8981 2939.9ns 1.8981 2940ns 1.898 2969.9ns 1.898 2970ns 1.8839 2999.9ns 1.8839 3000ns 1.8838 3029.9ns 1.8838 3030ns 1.8435 3059.9ns 1.8435 3060ns 1.8426 3089.9ns 1.8426 3090ns 1.7519 3119.9ns 1.7519 3120ns 1.7476 3149.9ns 1.7476 3150ns 1.5662 3179.9ns 1.5662 3180ns 1.5382 3209.9ns 1.5382 3210ns 1.2361 3239.9ns 1.2361 3240ns 1.1518 3269.9ns 1.1518 3270ns 0.7665 3299.9ns 0.7665 3300ns 0.6388 3329.9ns 0.6388 3330ns 0.1203 3359.9ns 0.1203 3360ns 1.906 3389.9ns 1.906 3390ns 1.8981 3419.9ns 1.8981 3420ns 1.898 3449.9ns 1.898 3450ns 1.8839 3479.9ns 1.8839 3480ns 1.8838 3509.9ns 1.8838 3510ns 1.8435 3539.9ns 1.8435 3540ns 1.8426 3569.9ns 1.8426 3570ns 1.7519 3599.9ns 1.7519 3600ns 1.7476 3629.9ns 1.7476 3630ns 1.5662 3659.9ns 1.5662 3660ns 1.5382 3689.9ns 1.5382 3690ns 1.2361 3719.9ns 1.2361 3720ns 1.1518 3749.9ns 1.1518 3750ns 0.7665 3779.9ns 0.7665 3780ns 0.6388 3809.9ns 0.6388 3810ns 0.1203)
V_IN2 IN2 0 PWL(0ns 1.90205 30ns 1.90205 60ns 1.90205 90ns 1.90205 120ns 1.90205 150ns 1.90205 180ns 1.90205 210ns 1.90205 240ns 1.90205 270ns 1.90205 300ns 1.90205 330ns 1.90205 360ns 1.90205 390ns 1.90205 420ns 1.90205 450ns 1.90205 479.9ns 1.90205 480ns 1.89095 510ns 1.89095 540ns 1.89095 570ns 1.89095 600ns 1.89095 630ns 1.89095 660ns 1.89095 690ns 1.89095 720ns 1.89095 750ns 1.89095 780ns 1.89095 810ns 1.89095 840ns 1.89095 870ns 1.89095 900ns 1.89095 930ns 1.89095 959.9ns 1.89095 960ns 1.86365 990ns 1.86365 1020ns 1.86365 1050ns 1.86365 1080ns 1.86365 1110ns 1.86365 1140ns 1.86365 1170ns 1.86365 1200ns 1.86365 1230ns 1.86365 1260ns 1.86365 1290ns 1.86365 1320ns 1.86365 1350ns 1.86365 1380ns 1.86365 1410ns 1.86365 1439.9ns 1.86365 1440ns 1.79725 1470ns 1.79725 1500ns 1.79725 1530ns 1.79725 1560ns 1.79725 1590ns 1.79725 1620ns 1.79725 1650ns 1.79725 1680ns 1.79725 1710ns 1.79725 1740ns 1.79725 1770ns 1.79725 1800ns 1.79725 1830ns 1.79725 1860ns 1.79725 1890ns 1.79725 1919.9ns 1.79725 1920ns 1.6569 1950ns 1.6569 1980ns 1.6569 2010ns 1.6569 2040ns 1.6569 2070ns 1.6569 2100ns 1.6569 2130ns 1.6569 2160ns 1.6569 2190ns 1.6569 2220ns 1.6569 2250ns 1.6569 2280ns 1.6569 2310ns 1.6569 2340ns 1.6569 2370ns 1.6569 2399.9ns 1.6569 2400ns 1.38715 2430ns 1.38715 2460ns 1.38715 2490ns 1.38715 2520ns 1.38715 2550ns 1.38715 2580ns 1.38715 2610ns 1.38715 2640ns 1.38715 2670ns 1.38715 2700ns 1.38715 2730ns 1.38715 2760ns 1.38715 2790ns 1.38715 2820ns 1.38715 2850ns 1.38715 2879.9ns 1.38715 2880ns 0.95915 2910ns 0.95915 2940ns 0.95915 2970ns 0.95915 3000ns 0.95915 3030ns 0.95915 3060ns 0.95915 3090ns 0.95915 3120ns 0.95915 3150ns 0.95915 3180ns 0.95915 3210ns 0.95915 3240ns 0.95915 3270ns 0.95915 3300ns 0.95915 3330ns 0.95915 3359.9ns 0.95915 3360ns 0.5 3390ns 0.5 3420ns 0.5 3450ns 0.5 3480ns 0.5 3510ns 0.5 3540ns 0.5 3570ns 0.5 3600ns 0.5 3630ns 0.5 3660ns 0.5 3690ns 0.5 3720ns 0.5 3750ns 0.5 3780ns 0.5 3810ns 0.5)

*V_IN1 IN1 0 PWL(0ns 0.4 30ns 0.4 60ns 0.4 90ns 0.4 120ns 0.4 150ns 0.4 180ns 0.4 210ns 0.4 239.99ns 0.4 240ns 0.734099 270ns 0.734099 300ns 0.734099 330ns 0.734099 360ns 0.734099 390ns 0.734099 420ns 0.734099 450ns 0.734099 479.99ns 0.734099 480ns 1.148807 510ns 1.148807 540ns 1.148807 570ns 1.148807 600ns 1.148807 630ns 1.148807 660ns 1.148807 690ns 1.148807 719.99ns 1.148807 720ns 1.442514 750ns 1.442514 780ns 1.442514 810ns 1.442514 840ns 1.442514 870ns 1.442514 900ns 1.442514 930ns 1.442514 959.99ns 1.442514 960ns 1.615965 990ns 1.615965 1020ns 1.615965 1050ns 1.615965 1080ns 1.615965 1110ns 1.615965 1140ns 1.615965 1170ns 1.615965 1199.99ns 1.615965 1200ns 1.710113 1230ns 1.710113 1260ns 1.710113 1290ns 1.710113 1320ns 1.710113 1350ns 1.710113 1380ns 1.710113 1410ns 1.710113 1439.99ns 1.710113 1440ns 1.757623 1470ns 1.757623 1500ns 1.757623 1530ns 1.757623 1560ns 1.757623 1590ns 1.757623 1620ns 1.757623 1650ns 1.757623 1679.99ns 1.757623 1680ns 1.780524 1710ns 1.780524 1740ns 1.780524 1770ns 1.780524 1800ns 1.780524 1830ns 1.780524 1860ns 1.780524 1890ns 1.780524)
*V_IN2 IN2 0 PWL(0ns 0.059729 29.99ns 0.059729 30ns 0.501857 59.99ns 0.501857 60ns 0.96634 89.99ns 0.96634 90ns 1.331275 119.99ns 1.331275 120ns 1.553753 149.99ns 1.553753 150ns 1.678176 179.99ns 1.678176 180ns 1.773196 209.99ns 1.773196 210ns 1.787852 239.99ns 1.787852 240ns 0.059729 269.99ns 0.059729 270ns 0.501857 299.99ns 0.501857 300ns 0.96634 329.99ns 0.96634 330ns 1.331275 359.99ns 1.331275 360ns 1.553753 389.99ns 1.553753 390ns 1.678176 419.99ns 1.678176 420ns 1.773196 449.99ns 1.773196 450ns 1.787852 479.99ns 1.787852 480ns 0.059729 509.99ns 0.059729 510ns 0.501857 539.99ns 0.501857 540ns 0.96634 569.99ns 0.96634 570ns 1.331275 599.99ns 1.331275 600ns 1.553753 629.99ns 1.553753 630ns 1.678176 659.99ns 1.678176 660ns 1.773196 689.99ns 1.773196 690ns 1.787852 719.99ns 1.787852 720ns 0.059729 749.99ns 0.059729 750ns 0.501857 779.99ns 0.501857 780ns 0.96634 809.99ns 0.96634 810ns 1.331275 839.99ns 1.331275 840ns 1.553753 869.99ns 1.553753 870ns 1.678176 899.99ns 1.678176 900ns 1.773196 929.99ns 1.773196 930ns 1.787852 959.99ns 1.787852 960ns 0.059729 989.99ns 0.059729 990ns 0.501857 1019.99ns 0.501857 1020ns 0.96634 1049.99ns 0.96634 1050ns 1.331275 1079.99ns 1.331275 1080ns 1.553753 1109.99ns 1.553753 1110ns 1.678176 1139.99ns 1.678176 1140ns 1.773196 1169.99ns 1.773196 1170ns 1.787852 1199.99ns 1.787852 1200ns 0.059729 1229.99ns 0.059729 1230ns 0.501857 1259.99ns 0.501857 1260ns 0.96634 1289.99ns 0.96634 1290ns 1.331275 1319.99ns 1.331275 1320ns 1.553753 1349.99ns 1.553753 1350ns 1.678176 1379.99ns 1.678176 1380ns 1.773196 1409.99ns 1.773196 1410ns 1.787852 1439.99ns 1.787852 1440ns 0.059729 1469.99ns 0.059729 1470ns 0.501857 1499.99ns 0.501857 1500ns 0.96634 1529.99ns 0.96634 1530ns 1.331275 1559.99ns 1.331275 1560ns 1.553753 1589.99ns 1.553753 1590ns 1.678176 1619.99ns 1.678176 1620ns 1.773196 1649.99ns 1.773196 1650ns 1.787852 1679.99ns 1.787852 1680ns 0.059729 1709.99ns 0.059729 1710ns 0.501857 1739.99ns 0.501857 1740ns 0.96634 1769.99ns 0.96634 1770ns 1.331275 1799.99ns 1.331275 1800ns 1.553753 1829.99ns 1.553753 1830ns 1.678176 1859.99ns 1.678176 1860ns 1.773196 1889.99ns 1.773196 1890ns 1.787852)

.tran 0.01ns 3840ns
.save all

.control
run
plot v(IN1)+2.2 v(IN2)+2.2 v(x1.OUT+) v(x1.OUT-) Q-2.2 CLK+4.4
.endc
"}
C {code.sym} -1170 -870 0 0 {name="Vcm 0.6" only_toplevel=false spice_ignore=true value=
"
.param VSS=0 VCC=1.8 Vcm=0.37 Vdif=0.92 time_period=15ns prds=10 rise=10ps fall=10ps

VCC VCC 0 DC 1.8
VSS VSS 0 DC 0
V_EN EN 0 DC 1.8
V_EN_bar EN_bar 0 DC 0
V_CLK CLK 0 PULSE(\{VCC\} \{VSS\} 0ns \{rise\} \{fall\} \{(time_period)/2\} \{time_period\} \{prds\})
V_CLK_bar CLK_bar 0 PULSE(\{VSS\} \{VCC\} 0ns \{rise\} \{fall\} \{(time_period)/2\} \{time_period\} \{prds\})

V_IN1 IN1 0 PULSE(\{Vcm+Vdif/2\} \{Vcm-Vdif/2\} 0 \{rise\} \{fall\} \{time_period\} \{time_period*2\} \{prds/2\})
V_IN2 IN2 0 PULSE(\{Vcm-Vdif/2\} \{Vcm+Vdif/2\} 0 \{rise\} \{fall\} \{time_period\} \{time_period*2\} \{prds/2\})

.tran 0.01ns \{time_period*prds\}
.save all

.control
run
plot IN1 IN2 v(x1.OUT+)+2.2 v(x1.OUT-)+2.2 Q-2.2 Q_bar-2.2 CLK+4.2 en+6.2
* 
*  foreach vdif 0.2 0.25 0.1 0.15 0.07
*    alterparam Vdif = $vdif
*    reset
*    run
*    plot v(IN+)+2.2 v(IN-)+2.2 v(OUT+) v(OUT-) Q-2.2 Q_bar-2.2 CLK+4.4 CLK_bar+4.4 
*  end
.endc
"}
C {voltage_comp/comp_1bit.sym} 220 -130 0 1 {name=x1}
C {iopin.sym} -80 -350 0 1 {name=p2 lab=VSS}
C {iopin.sym} -80 -390 0 1 {name=p9 lab=VCC}
C {iopin.sym} -80 -230 0 1 {name=p4 lab=IN1}
C {iopin.sym} -80 -190 0 1 {name=p5 lab=IN2}
C {iopin.sym} -80 -310 0 1 {name=p10 lab=CLK}
C {iopin.sym} -80 -270 0 1 {name=p11 lab=CLK_bar}
C {lab_pin.sym} -80 -390 0 1 {name=p7 sig_type=std_logic lab=VCC}
C {lab_pin.sym} -80 -350 0 1 {name=p14 sig_type=std_logic lab=VSS}
C {lab_pin.sym} -80 -310 0 1 {name=p17 sig_type=std_logic lab=CLK}
C {lab_pin.sym} -80 -270 0 1 {name=p18 sig_type=std_logic lab=CLK_bar
}
C {lab_pin.sym} -80 -230 0 1 {name=p25 sig_type=std_logic lab=IN1}
C {lab_pin.sym} -80 -190 0 1 {name=p26 sig_type=std_logic lab=IN2}
C {iopin.sym} -80 -150 0 1 {name=p19 lab=Q}
C {iopin.sym} -80 -110 0 1 {name=p20 lab=Q_bar}
C {lab_pin.sym} -80 -110 0 1 {name=p21 sig_type=std_logic lab=Q_bar}
C {lab_pin.sym} -80 -150 0 1 {name=p22 sig_type=std_logic lab=Q}
C {iopin.sym} -80 -70 0 1 {name=p8 lab=EN}
C {lab_pin.sym} -80 -70 0 1 {name=p12 sig_type=std_logic lab=EN}
C {lab_pin.sym} 70 -210 0 0 {name=p1 sig_type=std_logic lab=VCC}
C {lab_pin.sym} 70 -190 0 0 {name=p28 sig_type=std_logic lab=VSS}
C {lab_pin.sym} 70 -170 0 0 {name=p29 sig_type=std_logic lab=CLK}
C {lab_pin.sym} 70 -150 0 0 {name=p30 sig_type=std_logic lab=CLK_bar
}
C {lab_pin.sym} 70 -130 0 0 {name=p31 sig_type=std_logic lab=IN1}
C {lab_pin.sym} 70 -110 0 0 {name=p32 sig_type=std_logic lab=IN2}
C {lab_pin.sym} 70 -90 0 0 {name=p33 sig_type=std_logic lab=Q}
C {lab_pin.sym} 70 -70 0 0 {name=p34 sig_type=std_logic lab=Q_bar}
C {lab_pin.sym} 70 -50 0 0 {name=p35 sig_type=std_logic lab=EN}
C {launcher.sym} -980 -610 0 0 {name=h5
descr="load waves" 
tclcommand="xschem raw_read $netlist_dir/comp_1bit_test.raw tran"
}
C {code_shown.sym} -1810 -350 0 0 {name=bro1 only_toplevel=false spice_ignore=true value=
"
.param VSS=0 VCC=1.8 Vcm=0.5 Vdif=0.12 time_period=30ns prds=16 rise=10ps fall=10ps

VCC VCC 0 DC 1.8
VSS VSS 0 DC 0

V_CLK CLK 0 PULSE(\{VCC\} \{VSS\} 0ns \{rise\} \{fall\} \{time_period/2\} \{time_period\} \{prds\})
V_CLK_bar CLK_bar 0 PULSE(\{VSS\} \{VCC\} 0ns \{rise\} \{fall\} \{time_period/2\} \{time_period\} \{prds\})

V_IN1 IN1 0 PULSE(\{Vdif\} \{Vcm\} 0 100ps 100ps \{time_period\} \{time_period*2\} \{prds/2\})
V_IN2 IN2 0 PULSE(\{Vcm\} \{Vdif\} 0 100ps 100ps \{time_period\} \{time_period*2\} \{prds/2\})

V_EN EN 0 PULSE(\{VCC\} \{VSS\} 0ns \{rise\} \{fall\} \{time_period*prds/6\} \{time_period*prds/2\} prds)
V_EN_bar EN_bar 0 PULSE(\{VSS\} \{VCC\} 0ns \{rise\} \{fall\} \{time_period*prds/8\} \{time_period*prds/4\} prds)

.tran 0.01ns \{time_period*prds\}
.save all

.control
run
plot v(IN1) v(IN2) v(x1.OUT+)+2.2 v(x1.OUT-)+2.2 Q-2.2 Q_bar-2.2 CLK+4.2 en+6.2
  foreach vdif 0.11
    alterparam Vdif = $vdif
    reset
    run
    plot v(IN1) v(IN2) v(x1.OUT+)+2.2 v(x1.OUT-)+2.2 Q-2.2 Q_bar-2.2 CLK+4.2 en+6.2
  end
.endc
"}
C {code.sym} -1300 -710 0 0 {name=all threshold test1 only_toplevel=false spice_ignore=false value=
"
.param VSS=0 VCC=1.8 Vcm=1.45 Vdif=0.3 time_period=30ns prds=130 rise=100ps fall=100ps

VCC VCC 0 DC 1.8
VSS VSS 0 DC 0

V_CLK CLK 0 PULSE(\{VCC\} \{VSS\} 0ns \{rise\} \{fall\} \{(time_period)/2\} \{time_period\} \{prds\})
V_CLK_bar CLK_bar 0 PULSE(\{VSS\} \{VCC\} 0ns \{rise\} \{fall\} \{(time_period)/2\} \{time_period\} \{prds\})

V_EN EN 0 PULSE(\{VCC\} \{VSS\} 0ns \{rise\} \{fall\} \{time_period*prds/8\} \{time_period*prds/4\} prds)
V_EN_bar EN_bar 0 PULSE(\{VSS\} \{VCC\} 0ns \{rise\} \{fall\} \{time_period*prds/8\} \{time_period*prds/4\} prds)

V_IN1 IN1 0 PWL(0ns 1.897087 7ns 1.897087 14ns 1.897087 21ns 1.897087 28ns 1.897087 35ns 1.897087 42ns 1.897087 49ns 1.897087 56ns 1.897087 63ns 1.897087 69.99ns 1.897087 70ns 1.87899 77ns 1.87899 84ns 1.87899 91ns 1.87899 98ns 1.87899 105ns 1.87899 112ns 1.87899 119ns 1.87899 126ns 1.87899 133ns 1.87899 139.99ns 1.87899 140ns 1.83947 147ns 1.83947 154ns 1.83947 161ns 1.83947 168ns 1.83947 175ns 1.83947 182ns 1.83947 189ns 1.83947 196ns 1.83947 203ns 1.83947 209.99ns 1.83947 210ns 1.757893 217ns 1.757893 224ns 1.757893 231ns 1.757893 238ns 1.757893 245ns 1.757893 252ns 1.757893 259ns 1.757893 266ns 1.757893 273ns 1.757893 279.99ns 1.757893 280ns 1.601119 287ns 1.601119 294ns 1.601119 301ns 1.601119 308ns 1.601119 315ns 1.601119 322ns 1.601119 329ns 1.601119 336ns 1.601119 343ns 1.601119 349.99ns 1.601119 350ns 1.327728 357ns 1.327728 364ns 1.327728 371ns 1.327728 378ns 1.327728 385ns 1.327728 392ns 1.327728 399ns 1.327728 406ns 1.327728 413ns 1.327728 419.99ns 1.327728 420ns 0.900434 427ns 0.900434 434ns 0.900434 441ns 0.900434 448ns 0.900434 455ns 0.900434 462ns 0.900434 469ns 0.900434 476ns 0.900434 483ns 0.900434 489.99ns 0.900434 490ns 0.64 497ns 0.64 504ns 0.64 511ns 0.64 518ns 0.64 525ns 0.64 532ns 0.64 539ns 0.64 546ns 0.64 553ns 0.64)
V_IN2 IN2 0 PWL(0ns 1.902626 6.99ns 1.902626 7ns 1.891547 13.99ns 1.891547 14ns 1.866433 20.99ns 1.866433 21ns 1.812506 27.99ns 1.812506 28ns 1.703279 34.99ns 1.703279 35ns 1.49896 41.99ns 1.49896 42ns 1.156497 48.99ns 1.156497 49ns 0.64437 56ns 0.64437 62.99ns 0.64437 63ns 0.011758 69.99ns 0.011758 70ns 1.902626 76.99ns 1.902626 77ns 1.891547 83.99ns 1.891547 84ns 1.866433 90.99ns 1.866433 91ns 1.812506 97.99ns 1.812506 98ns 1.703279 104.99ns 1.703279 105ns 1.49896 111.99ns 1.49896 112ns 1.156497 118.99ns 1.156497 119ns 0.64437 126ns 0.64437 132.99ns 0.64437 133ns 0.011758 139.99ns 0.011758 140ns 1.902626 146.99ns 1.902626 147ns 1.891547 153.99ns 1.891547 154ns 1.866433 160.99ns 1.866433 161ns 1.812506 167.99ns 1.812506 168ns 1.703279 174.99ns 1.703279 175ns 1.49896 181.99ns 1.49896 182ns 1.156497 188.99ns 1.156497 189ns 0.64437 196ns 0.64437 202.99ns 0.64437 203ns 0.011758 209.99ns 0.011758 210ns 1.902626 216.99ns 1.902626 217ns 1.891547 223.99ns 1.891547 224ns 1.866433 230.99ns 1.866433 231ns 1.812506 237.99ns 1.812506 238ns 1.703279 244.99ns 1.703279 245ns 1.49896 251.99ns 1.49896 252ns 1.156497 258.99ns 1.156497 259ns 0.64437 266ns 0.64437 272.99ns 0.64437 273ns 0.011758 279.99ns 0.011758 280ns 1.902626 286.99ns 1.902626 287ns 1.891547 293.99ns 1.891547 294ns 1.866433 300.99ns 1.866433 301ns 1.812506 307.99ns 1.812506 308ns 1.703279 314.99ns 1.703279 315ns 1.49896 321.99ns 1.49896 322ns 1.156497 328.99ns 1.156497 329ns 0.64437 336ns 0.64437 342.99ns 0.64437 343ns 0.011758 349.99ns 0.011758 350ns 1.902626 356.99ns 1.902626 357ns 1.891547 363.99ns 1.891547 364ns 1.866433 370.99ns 1.866433 371ns 1.812506 377.99ns 1.812506 378ns 1.703279 384.99ns 1.703279 385ns 1.49896 391.99ns 1.49896 392ns 1.156497 398.99ns 1.156497 399ns 0.64437 406ns 0.64437 412.99ns 0.64437 413ns 0.011758 419.99ns 0.011758 420ns 1.902626 426.99ns 1.902626 427ns 1.891547 433.99ns 1.891547 434ns 1.866433 440.99ns 1.866433 441ns 1.812506 447.99ns 1.812506 448ns 1.703279 454.99ns 1.703279 455ns 1.49896 461.99ns 1.49896 462ns 1.156497 468.99ns 1.156497 469ns 0.64437 476ns 0.64437 482.99ns 0.64437 483ns 0.011758 489.99ns 0.011758 490ns 1.902626 496.99ns 1.902626 497ns 1.891547 503.99ns 1.891547 504ns 1.866433 510.99ns 1.866433 511ns 1.812506 517.99ns 1.812506 518ns 1.703279 524.99ns 1.703279 525ns 1.49896 531.99ns 1.49896 532ns 1.156497 538.99ns 1.156497 539ns 0.64437 546ns 0.64437 552.99ns 0.64437 553ns 0.011758)

*V_IN1 IN1 0 PWL(0ns 0.4 30ns 0.4 60ns 0.4 90ns 0.4 120ns 0.4 150ns 0.4 180ns 0.4 210ns 0.4 239.99ns 0.4 240ns 0.734099 270ns 0.734099 300ns 0.734099 330ns 0.734099 360ns 0.734099 390ns 0.734099 420ns 0.734099 450ns 0.734099 479.99ns 0.734099 480ns 1.148807 510ns 1.148807 540ns 1.148807 570ns 1.148807 600ns 1.148807 630ns 1.148807 660ns 1.148807 690ns 1.148807 719.99ns 1.148807 720ns 1.442514 750ns 1.442514 780ns 1.442514 810ns 1.442514 840ns 1.442514 870ns 1.442514 900ns 1.442514 930ns 1.442514 959.99ns 1.442514 960ns 1.615965 990ns 1.615965 1020ns 1.615965 1050ns 1.615965 1080ns 1.615965 1110ns 1.615965 1140ns 1.615965 1170ns 1.615965 1199.99ns 1.615965 1200ns 1.710113 1230ns 1.710113 1260ns 1.710113 1290ns 1.710113 1320ns 1.710113 1350ns 1.710113 1380ns 1.710113 1410ns 1.710113 1439.99ns 1.710113 1440ns 1.757623 1470ns 1.757623 1500ns 1.757623 1530ns 1.757623 1560ns 1.757623 1590ns 1.757623 1620ns 1.757623 1650ns 1.757623 1679.99ns 1.757623 1680ns 1.780524 1710ns 1.780524 1740ns 1.780524 1770ns 1.780524 1800ns 1.780524 1830ns 1.780524 1860ns 1.780524 1890ns 1.780524)
*V_IN2 IN2 0 PWL(0ns 0.059729 29.99ns 0.059729 30ns 0.501857 59.99ns 0.501857 60ns 0.96634 89.99ns 0.96634 90ns 1.331275 119.99ns 1.331275 120ns 1.553753 149.99ns 1.553753 150ns 1.678176 179.99ns 1.678176 180ns 1.773196 209.99ns 1.773196 210ns 1.787852 239.99ns 1.787852 240ns 0.059729 269.99ns 0.059729 270ns 0.501857 299.99ns 0.501857 300ns 0.96634 329.99ns 0.96634 330ns 1.331275 359.99ns 1.331275 360ns 1.553753 389.99ns 1.553753 390ns 1.678176 419.99ns 1.678176 420ns 1.773196 449.99ns 1.773196 450ns 1.787852 479.99ns 1.787852 480ns 0.059729 509.99ns 0.059729 510ns 0.501857 539.99ns 0.501857 540ns 0.96634 569.99ns 0.96634 570ns 1.331275 599.99ns 1.331275 600ns 1.553753 629.99ns 1.553753 630ns 1.678176 659.99ns 1.678176 660ns 1.773196 689.99ns 1.773196 690ns 1.787852 719.99ns 1.787852 720ns 0.059729 749.99ns 0.059729 750ns 0.501857 779.99ns 0.501857 780ns 0.96634 809.99ns 0.96634 810ns 1.331275 839.99ns 1.331275 840ns 1.553753 869.99ns 1.553753 870ns 1.678176 899.99ns 1.678176 900ns 1.773196 929.99ns 1.773196 930ns 1.787852 959.99ns 1.787852 960ns 0.059729 989.99ns 0.059729 990ns 0.501857 1019.99ns 0.501857 1020ns 0.96634 1049.99ns 0.96634 1050ns 1.331275 1079.99ns 1.331275 1080ns 1.553753 1109.99ns 1.553753 1110ns 1.678176 1139.99ns 1.678176 1140ns 1.773196 1169.99ns 1.773196 1170ns 1.787852 1199.99ns 1.787852 1200ns 0.059729 1229.99ns 0.059729 1230ns 0.501857 1259.99ns 0.501857 1260ns 0.96634 1289.99ns 0.96634 1290ns 1.331275 1319.99ns 1.331275 1320ns 1.553753 1349.99ns 1.553753 1350ns 1.678176 1379.99ns 1.678176 1380ns 1.773196 1409.99ns 1.773196 1410ns 1.787852 1439.99ns 1.787852 1440ns 0.059729 1469.99ns 0.059729 1470ns 0.501857 1499.99ns 0.501857 1500ns 0.96634 1529.99ns 0.96634 1530ns 1.331275 1559.99ns 1.331275 1560ns 1.553753 1589.99ns 1.553753 1590ns 1.678176 1619.99ns 1.678176 1620ns 1.773196 1649.99ns 1.773196 1650ns 1.787852 1679.99ns 1.787852 1680ns 0.059729 1709.99ns 0.059729 1710ns 0.501857 1739.99ns 0.501857 1740ns 0.96634 1769.99ns 0.96634 1770ns 1.331275 1799.99ns 1.331275 1800ns 1.553753 1829.99ns 1.553753 1830ns 1.678176 1859.99ns 1.678176 1860ns 1.773196 1889.99ns 1.773196 1890ns 1.787852)

.tran 0.01ns 3840ns
.save all

.control
run
plot v(IN1)+2.2 v(IN2)+2.2 v(x1.OUT+) v(x1.OUT-) Q-2.2 CLK+4.4
.endc
"}
